models/IEEE_123_FLISR_Case_regs/em1/Transformers.dss
New "Transformer.reg4c" phases=1 windings=2 buses=[160.3, 160r.3, ] conns=[wye, wye, ] kVs=[2.402, 2.402, ] kVAs=[2000, 2000, ] taps=[1, 1.01875, ] wdg=1 %R=5E-006 RdcOhms=1.226041E-007 wdg=2 %R=5E-006 RdcOhms=1.226041E-007 RdcOhms=1.226041E-007 Rneut=-1 Xneut=0 conns=[wye, wye, ] kVs=[2.402, 2.402, ] kVAs=[2000, 2000, ] taps=[1, 1.01875, ] XHL=0.01 XHT=35 XLT=30 Xscarray=[0.01, ] thermal=2 n=.8 m=.8 flrise=65 hsrise=15 %loadloss=1E-005 %noloadloss=0 normhkVA=2200 emerghkVA=3000 sub=n MaxTap=1.1 MinTap=0.9 NumTaps=32 %imag=0 %Rs=[5E-006, 5E-006, ] XRConst=NO X12=0.01 X13=35 X23=30 normamps=915.9 emergamps=1249 faultrate=0.007 pctperm=100 repair=36 basefreq=60 enabled=true bank=reg4 buses=[160.3, 160r.3, ] ppm_antifloat=0
New "Transformer.reg4b" phases=1 windings=2 buses=[160.2, 160r.2, ] conns=[wye, wye, ] kVs=[2.402, 2.402, ] kVAs=[2000, 2000, ] taps=[1, 1.00625, ] wdg=1 %R=5E-006 RdcOhms=1.226041E-007 wdg=2 %R=5E-006 RdcOhms=1.226041E-007 RdcOhms=1.226041E-007 Rneut=-1 Xneut=0 conns=[wye, wye, ] kVs=[2.402, 2.402, ] kVAs=[2000, 2000, ] taps=[1, 1.00625, ] XHL=0.01 XHT=35 XLT=30 Xscarray=[0.01, ] thermal=2 n=.8 m=.8 flrise=65 hsrise=15 %loadloss=1E-005 %noloadloss=0 normhkVA=2200 emerghkVA=3000 sub=n MaxTap=1.1 MinTap=0.9 NumTaps=32 %imag=0 %Rs=[5E-006, 5E-006, ] XRConst=NO X12=0.01 X13=35 X23=30 normamps=915.9 emergamps=1249 faultrate=0.007 pctperm=100 repair=36 basefreq=60 enabled=true bank=reg4 buses=[160.2, 160r.2, ] ppm_antifloat=0
New "Transformer.reg4a" phases=1 windings=2 bank=reg4 buses=[160.1, 160r.1, ] conns=[wye, wye, ] kVs=[2.402, 2.402, ] kVAs=[2000, 2000, ] XHL=0.01 %loadloss=1E-005 ppm_antifloat=0
New "Transformer.reg3c" phases=1 windings=2 buses=[25.3, 25r.3, ] conns=[wye, wye, ] kVs=[2.402, 2.402, ] kVAs=[2000, 2000, ] taps=[1, 0.99375, ] wdg=1 %R=5E-006 RdcOhms=1.226041E-007 wdg=2 %R=5E-006 RdcOhms=1.226041E-007 RdcOhms=1.226041E-007 Rneut=-1 Xneut=0 conns=[wye, wye, ] kVs=[2.402, 2.402, ] kVAs=[2000, 2000, ] taps=[1, 0.99375, ] XHL=0.01 XHT=35 XLT=30 Xscarray=[0.01, ] thermal=2 n=.8 m=.8 flrise=65 hsrise=15 %loadloss=1E-005 %noloadloss=0 normhkVA=2200 emerghkVA=3000 sub=n MaxTap=1.1 MinTap=0.9 NumTaps=32 %imag=0 %Rs=[5E-006, 5E-006, ] XRConst=NO X12=0.01 X13=35 X23=30 normamps=915.9 emergamps=1249 faultrate=0.007 pctperm=100 repair=36 basefreq=60 enabled=true bank=reg3 buses=[25.3, 25r.3, ] ppm_antifloat=0
New "Transformer.reg3a" phases=1 windings=2 bank=reg3 buses=[25.1, 25r.1, ] conns=[wye, wye, ] kVs=[2.402, 2.402, ] kVAs=[2000, 2000, ] XHL=0.01 %loadloss=1E-005 ppm_antifloat=0
New "Transformer.reg2a" phases=1 windings=2 bank=reg2 buses=[9.1, 9r.1, ] conns=[wye, wye, ] kVs=[2.402, 2.402, ] kVAs=[2000, 2000, ] XHL=0.01 %loadloss=1E-005 ppm_antifloat=0
